[CONDUITS]
;;Name           From Node        To Node          Length     Roughness  InOffset   OutOffset  InitFlow   MaxFlow   
;;-------------- ---------------- ---------------- ---------- ---------- ---------- ---------- ---------- ----------
;DRI  REGULATORS & OUTFALLS (orig L 900')
1002             1002             1000             2440       0.013      0          0          0          0         
;Regulator Added Flap Gate
1003             10030            1002             160        0.018      0          12.8       0          0         
10030            1003             10030            290        0.013      0          5.2        0          0         
;* GDRSS Level 3.0 Outfall Representation: Pulaski Outfall
;(B59) (9/12/96)
1004             10030            1004             1600       0.03       12.2       0          0          0         
10041            10042            10041            800        0.017      0          0          0          0         
10042            10030            10042            800        0.026      5.2        0          0          0         
1006             1006             1002             1100       0.013      0          0          0          0         
1007             1007             1006             140        0.018      0          12.8       0          0         
;* updated 9-23-08 WT B45 *C1 10070 1007 10070 0 1 0 8.0 0
;1060 0 1.9 0.013 0 0 *Trunk Sewer
100710           100710           1007             1050       0.013      0          0          0          0         
100715           100715           100710           460        0.013      0          0          0          0         
100725           100725           1007             520        0.013      0          0          0          0         
100730           100730           100725           780        0.013      0          0          0          0         
1008             10081            1008             1000       0.017      0          0          0          0         
;* C1 100735 100735 100730 0 1 0 3.75 0 530 0 0.14 0.013 0 0
;9/15/09 No Inflow (Deadend) * C1 100740 100740 100735 0 1 0 3.5 0 360 0 0 0.013
;0 0    9/15/09 No Inflow (Deadend) * C1 100745 100745 100730 0 1 0 4.75 0 520 0
;{Unknown - 2018.02.15} 0 0.013 0 0     9/15/09 No Inflow (Deadend) * C1 100750 100750 100745 0 1 0
;4.25 0 550 0 0 0.013 0 0        9/15/09 No Inflow (Deadend) * GDRSS Level 3.0
;Outfall Representation: Dearborn Outfall (B45) (9/12/96)
10081            1007             10081            800        0.015      9.14       0          0          0         
1010             1010             1006             700        0.013      0          0          0          0         
1011             1011             1010             140        0.029      0          14         0          0         
1012             10111            1012             650        0.013      0          0          0          0         
;* GDRSS Level 3.0 Outfall Representation: Cary Outfall
;(B44) (9/12/96) *zp1 revised per survey drawings (5/07)
10121            1011             10111            447        0.013      13.44      0          0          0         
1014             1014             1010             1536       0.013      0          0          0          0         
1018             1018             1014             1685       0.013      0          0          0          0         
1019             1019             1018             225        0.024      0          11.81      0          0         
;* updated 9-23-08 WT B42 *C1 10190 1019 10190 0 1 0 6.83 0
101905           101905           1019             1280       0.013      0          0          0          0         
101910           101910           101905           1670       0.013      0          0          0          0         
101916           101918           101917           200        0.013      3.45       0          0          0         
101917           101917           101926           1115       0.013      0          0          0          0         
101918           101918           101910           1860       0.013      0          0          0          0         
101919           101919           101918           460        0.013      0          0          0          0         
101920           101920           1019             500        0.013      0          0          0          0         
101925           101925           101920           2940       0.013      0          0          0          0         
101926           101926           101927           920        0.013      0          0          0          0         
101927           101927           101930           400        0.013      0          0          0          0         
101928           101925           101927           200        0.013      1.5        0          0          0         
101930           101930           102505           1500       0.013      0          3.35       0          0         
101935           101935           101930           850        0.013      0          0          0          0         
101940           101940           101935           400        0.013      0          0          0          0         
101945           101945           101940           1430       0.013      0          0          0          0         
101946           101945           101947           200        0.013      1.5        0          0          0         
101947           101947           102510           1880       0.013      0          3.17       0          0         
1020             10202            1020             1200       0.013      0          0          0          0         
;* GDRSS Level 3.0 Outfall Representation: Schroeder
;Outfall(B42) (9/12/96) *zp1 revised per survey drawings (5/07)
10201            1019             10201            800        0.014      14.5       0          0          0         
10202            10201            10202            700        0.008      0          0          0          0         
;* (2) Schroeder B *zp1 revised per survey drawings (5/07)
10203            1019             10203            700        0.008      14.1       0          0          0         
10204            10203            10204            700        0.008      0          0          0          0         
10205            10204            10205            1200       0.012      0          0          0          0         
1022             1022             1018             454        0.013      0          0          0          0         
1024             1024             1022             1669       0.013      0          0          0          0         
1025             1025             1024             181        0.016      0          9.65       0          0         
;* updated 9-23-08 WT B41
102505           102505           1025             2420       0.013      0          0          0          0         
102506           102505           103112           400        0.013      3.35       0          0          0         
;* GDRSS Level 3.0 Outfall Representation: Dragoon
;(Livernois Relief) Outfall(B41) (9/12/96)
10251            1025             10251            1253       0.013      3.2        0          0          0         
102510           102510           102505           1600       0.013      0          0          0          0         
10252            10251            10252            1000       0.019      0          0          0          0         
1026             10252            1026             1000       0.019      0          0          0          0         
1028             1028             1024             716        0.013      0          0          0          0         
1030             1030             1028             1000       0.013      0          0          0          0         
1031             1031             1030             210        0.024      0          11.75      0          0         
;updated 9-23-08 WT B40
103105           103105           1031             780        0.013      0          0          0          0         
;* GDRSS Level 3.0 Outfall Representation: Campbell
;Outfall(B40)
10311            1031             10311            700        0.022      13.4       0          0          0         
103110           103110           103105           2250       0.013      0          0          0          0         
103111           103110           103112           150        0.013      1.5        0          0          0         
103114           103114           102510           400        0.013      0          0          0          0         
103115           103115           103110           1450       0.013      0          0          0          0         
103116           103115           103114           200        0.013      1.5        0          0          0         
10312            10311            10312            1000       0.01       0          0          0          0         
103120           103120           103510           640        0.013      0          0          0          0         
103122           103122           1031             740        0.013      0          0          0          0         
103123           103122           103120           150        0.013      1.5        0          0          0         
103124           103112           103125           375        0.013      0          1.88       0          0         
;orig 1700'
103125           103125           103120           2180       0.013      0          0          0          0         
103130           103130           103125           2290       0.013      0          0          0          0         
103131           103114           103130           380        0.013      0          2.83       0          0         
103140           103140           103130           150        0.013      0          0          0          0         
103145           103145           103140           2900       0.013      0          0          0          0         
103150           103150           103122           1800       0.013      0          0          0          0         
103155           103155           103150           1800       0.013      0          0          0          0         
103156           103155           103140           580        0.013      1.5        3.22       0          0         
103160           103160           103155           2350       0.013      0          0          0          0         
103170           103170           1031             647        0.013      0          0          0          0         
103175           103175           103170           2896       0.013      0          0          0          0         
103180           103180           103175           3304       0.013      0          0          0          0         
103185           103185           103180           1882       0.013      0          0          0          0         
103186           103185           103145           1364       0.013      0          3.6        0          0         
1032             10312            1032             1078       0.013      0          0          0          0         
10321            10312            10321            1078       0.013      0          0          0          0         
10322            10312            10322            1078       0.013      0          0          0          0         
1034             1034             1030             600        0.013      0          0          0          0         
1035             1035             1034             250        0.011      0          9.6        0          0         
;* GDRSS Level 3.0 Outfall Representation: Junction
;Outfall(B39) (9/13/96) *Adjusted ZP1 to Match Reg Invert Change
10351            1035             10351            600        0.023      6.24       0          0          0         
;* updated 9-23-08 WT B39 *C1 10350 1035 10350 0 1 0 13.0 0
;1650 0 1.9 0.013 0 0 *Trunk Sewer
103510           103510           1035             500        0.013      0          0          0          0         
10352            10351            10352            600        0.023      0          0          0          0         
1036             10352            1036             890        0.013      0          0          0          0         
1038             1038             1034             454        0.012      0          0          0          0         
1039             1039             1038             240        0.021      0          10.05      0          0         
;* updated 9-23-08 WT B38
103905           103905           1039             2740       0.013      0          0          0          0         
;* GDRSS Level 3.0 Outfall Representation: Morrell
;Outfall(B38) (9/13/96)
10391            1039             10391            200        0.023      8.2        0          0          0         
103910           103910           103905           240        0.013      0          0          0          0         
103915           103915           103910           1600       0.013      0          0          0          0         
10392            10391            10392            200        0.024      0          0          0          0         
103920           103920           103915           2250       0.013      0          0          0          0         
1040             10392            1040             880        0.013      0          0          0          0         
10401            10392            10401            880        0.013      0          0          0          0         
10402            10392            10402            880        0.013      0          0          0          0         
10403            10392            10403            880        0.013      0          0          0          0         
1042             1042             1038             454        0.011      0          0          0          0         
;Added Flap Gate
1043             1043             1042             140        0.021      0          12.8       0          0         
1044             10441            1044             800        0.018      0          0          0          0         
;* C1 200530 200530 200525 0 1 0 5 0 2210 0 0 0.013 0 0
;9/15/09 No Inflow (deadend) *(2)Ferdinand Outfall (B37) *zp1 revised per survey
;drawings (5/07)
10441            1043             10441            800        0.013      12.94      0          0          0         
;2 conduits dishcharging into Clark-Summit Outfall
10442            1044             10442            700        0.008      0          5.1        0          0         
1046             1046             1042             454        0.008      0          0          0          0         
;Added Flap Gate
1047             1047             1046             169        0.017      0          9          0          0         
1048             1048             10442            800        0.01       0          0          0          0         
1050             1050             1046             645        0.013      0          0          0          0         
1051             1051             1050             210        0.022      0          12.8       0          0         
;* updated 9-23-08 WT B35
105105           105105           1051             400        0.013      0          0          0          0         
;* GDRSS Level 3.0 Outfall Representation: McKinstry Outfall(
10511            1051             10511            200        0.025      11.16      0          0          0         
105110           105110           105105           1660       0.013      0          0          0          0         
105115           105115           105110           350        0.013      0          0          0          0         
10512            10511            10512            200        0.023      0          0          0          0         
105120           105120           105115           285        0.013      0          0          0          0         
105125           105125           105120           370        0.013      0          0          0          0         
105130           105130           105125           1390       0.013      0          0          0          0         
105135           105135           105130           1400       0.013      0          0          0          0         
105140           105140           105135           1050       0.013      0          0          0          0         
1052             10512            1052             400        0.013      0          0          0          0         
10522            10512            10522            400        0.013      0          0          0          0         
1054             1054             1050             1339       0.013      0          0          0          0         
1055             1055             1054             190        0.024      0          11.3       0          0         
;* updated 9-23-08 WT B34 *C1 10550 1055 10550 0 1 0 4.67 0
;400 0 9.26 0.013 0 0 *Trunk Sewer *C1 10559 1055 10550 0 1 0 4.67 0 400 0 9.26
;0.013 0 0 *Trunk Sewer
105505           105505           1055             405        0.013      0          0          0          0         
;* GDRSS Level 3.0 Outfall Representation: Scotten
;Outfall(B34) (9/13/96) *zp1 revised per survey drawings (5/07) *ZP1 revised per
;survey drawings (5/07)
10551            1055             10551            200        0.026      12.33      0          0          0         
105510           105510           105505           1340       0.013      0          0          0          0         
105515           105515           105510           290        0.013      0          0          0          0         
10552            10551            10552            200        0.022      0          0          0          0         
105520           105520           105515           310        0.013      0          0          0          0         
105525           105525           105520           2605       0.013      0          0          0          0         
105530           105530           105525           2350       0.013      0          0          0          0         
105535           105535           105530           1925       0.013      0          0          0          0         
105540           105540           105535           200        0.013      0          0          0          0         
105541           105540           105542           55         0.013      1.25       2.22       0          0         
105542           105542           20100            240        0.013      0          0.02       0          0         
105545           105545           105540           1800       0.013      0          0          0          0         
105550           105550           105545           1090       0.013      0          0          0          0         
105555           105555           105550           200        0.013      0          0          0          0         
105556           105555           105557           75         0.013      1.25       2.63       0          0         
105557           105557           2030             400        0.013      0          0.99       0          0         
1056             10552            1056             400        0.013      0          0          0          0         
10562            10552            10562            400        0.013      0          0          0          0         
1058             1058             1054             610        0.013      0          0          0          0         
1059             1059             1058             140        0.021      0          12.4       0          0         
;* updated 9-23-08 WT B33 *C1 10590 1059 10590 0 1 0 3.0 0
;475 0 9.05 0.013 0 0 *Trunk Sewer
105905           105905           1059             1940       0.013      0          0          0          0         
1060             10601            1060             341        0.013      0          0          0          0         
;* GDRSS Level 3.0 Outfall Representation: Swain
;Outfall(B33) (9/13/96)
10601            1059             10601            600        0.007      11.25      0          0          0         
1062             1062             1058             610        0.013      0          0          0          0         
;Added Flap Gate
1063             1063             1062             140        0.021      0          11.71      0          0         
;* updated 9-23-08 WT B32 *C1 10630 1063 10630 0 1 0 2.0 0
;360 0 7.90 0.013 0 0 *Trunk Sewer * GDRSS Level 3.0 Outfall Representation: W.
;Grand Outfall(B32) (9/13/96)
10631            1063             10631            800        0.011      7.9        0          0          0         
10632            10631            10632            600        0.008      0          0          0          0         
1064             10632            1064             376        0.013      0          0          0          0         
1066             1066             1062             900        0.013      0          0          0          0         
1067             1067             1066             210        0.023      0          11.4       0          0         
;* updated 9-23-08 WT B31 *C1 10670 1067 10670 0 1 0 8.0 0
;1300 0 7.1 0.013 0 0 *Trunk Sewer
106705           106705           1067             1350       0.013      0          0          0          0         
;* GDRSS Level 3.0 Outfall Representation: 24th Outfall(B31)
;(9/13/96) *zp1 revised per survey drawings (5/07)
10671            1067             10671            900        0.029      10.82      0          0          0         
106710           106710           106705           515        0.013      0          0          0          0         
106715           106715           106710           575        0.013      0          0          0          0         
10672            10671            10672            400        0.005      0          0          0          0         
106720           106720           106715           1020       0.013      0          0          0          0         
106725           106725           106720           410        0.013      0          0.19       0          0         
106730           106730           106725           550        0.013      0          0          0          0         
106735           106735           106730           1165       0.013      0          0          0          0         
106740           106740           106735           1675       0.013      0          0          0          0         
106745           106745           106740           200        0.013      0          0          0          0         
106746           106745           106747           50         0.013      1.25       1.93       0          0         
106747           106747           106767           870        0.013      0          0          0          0         
106750           106750           106720           440        0.013      0          0          0          0         
106755           106755           106750           2990       0.013      0          0.62       0          0         
106760           106760           106755           900        0.013      0          0          0          0         
106765           106765           106760           200        0.013      0          0          0          0         
106766           106765           106767           60         0.013      1.25       1.72       0          0         
106767           106767           106787           700        0.013      0          0          0          0         
106770           106770           106750           770        0.013      0          0          0          0         
106775           106775           106770           2800       0.013      0          0          0          0         
106780           106780           106775           1310       0.013      0          0          0          0         
106785           106785           106780           200        0.013      0          0          0          0         
106786           106785           106787           55         0.013      1.5        1.93       0          0         
106787           106787           105542           1155       0.013      0          0          0          0         
106790           106790           106785           950        0.013      0          0          0          0         
106795           106795           106790           2400       0.013      0          0          0          0         
1068             10672            1068             565        0.013      0          0          0          0         
106800           106800           106795           200        0.013      0          0          0          0         
106801           106800           106802           55         0.013      1.33       2          0          0         
106802           106802           105557           1075       0.013      0          0          0          0         
106805           106805           106765           1200       0.013      0          0          0          0         
10681            10672            10681            565        0.013      0          0          0          0         
106810           106810           106805           2390       0.013      0          0          0          0         
106815           106815           106810           200        0.013      0          0          0          0         
106816           106815           106817           60         0.013      1.25       1.75       0          0         
106817           106817           106802           800        0.013      0          0          0          0         
106820           106820           106745           1230       0.013      0          0          0          0         
106825           106825           106820           1795       0.013      0          0          0          0         
106830           106830           106825           200        0.013      0          0          0          0         
106831           106830           106832           60         0.013      1.25       1.75       0          0         
106832           106832           106817           550        0.013      0          0          0          0         
1070             1070             1066             1100       0.013      0          0          0          0         
;Added Flap Gate
1071             1071             1070             190        0.018      0          10.77      0          0         
;* updated 9-23-08 WT B30 *C1 10710 1071 10710 0 1 0 5.04 0
;1380 0 5.35 0.013 0 0 *Trunk Sewer
107105           107105           1071             2220       0.013      0          0          0          0         
;* GDRSS Level 3.0 Outfall Representation: 21st Outfall(B30)
;(9/13/96) *zp1 revised per survey drawings (5/07)
10711            1071             10711            300        0.019      4.46       0          0          0         
107110           107110           107105           1050       0.013      0          0          0          0         
107115           107115           107110           1200       0.013      0          0          0          0         
10712            10711            10712            300        0.01       0          0          0          0         
107120           107120           107115           300        0.013      0          0          0          0         
107125           107125           107120           720        0.013      0          0          0          0         
107130           107130           107125           950        0.013      0          0          0          0         
107135           107135           107130           200        0.013      0          0          0          0         
107140           107140           107135           490        0.013      0          0          0          0         
107145           107145           107140           200        0.013      0          0          0          0         
107146           107145           107147           60         0.013      1.25       1.95       0          0         
107147           107147           106747           900        0.013      0          0          0          0         
107150           107150           107145           1250       0.013      0          0          0          0         
107155           107155           107150           2315       0.013      0          0          0          0         
107160           107160           107155           200        0.013      0          0          0          0         
107161           107160           107162           60         0.013      1.25       1.25       0          0         
107162           107162           107163           850        0.013      0          0          0          0         
107163           107163           106832           340        0.013      0          0          0          0         
;*C1 10712 10711 10712 0 2 0 9.55 7.00 300 0 0.0 0.008 0 0
;********Edited: 10/01 WT Updated to increase stability
1072             10712            1072             369        0.013      0          0          0          0         
1074             1074             1070             1000       0.013      0          0          0          0         
1075             1075             1074             200        0.022      0          10.68      0          0         
;* updated 9-23-08 WT B29 *C1 10750 1075 10750 0 1 0 7.0 0
;1459 0 7.06 0.013 0 0 *Trunk Sewer
107505           107505           1075             1470       0.013      0.33       0          0          0         
;* GDRSS Level 3.0 Outfall Representation: 18th Outfall(B29)
;(9/13/96) *zp1 revised per survey drawings (5/07)