[JUNCTIONS]
;;Name           Elevation  MaxDepth   InitDepth  SurDepth   Aponded   
;;-------------- ---------- ---------- ---------- ---------- ----------
1002             546.17     38.09      0          0          0         
10030            560.56     22.9       0          0          0         
1006             546.66     45.4       0          0          0         
100710           563.56     28         0          0          0         
100715           564        25.76      0          0          0         
;9/15/09 No Inflow (Deadend)
100725           567.28     24.88      0          0          0         
100730           568.33     24.93      0          0          0         
1010             547.02     44.54      0          0          0         
;GDRSS Level 3.0 Outfall Representation: Cary Outfall (B44)
;(9/12/96)
10111            574.06     17.5       0          0          0         
1014             547.74     40.82      0          0          0         
1018             548.54     40.42      0          0          0         
101905           572.75     18.31      0          0          0         
101910           573.58     17.28      0          0          0         
101917           571.01     19.15      0          0          0         
101920           575.51     13.55      0          0          0         
101925           577.17     10.59      0          0          0         
101926           569.28     20.98      0          0          0         
101927           568.36     19.9       0          0          0         
101930           567.94     21.12      0          0          0         
101935           569.32     21.64      0          0          0         
101940           577.63     14.13      0          0          0         
101947           571.13     18.13      0          0          0         
1022             548.75     39.71      0          0          0         
1024             549.26     36.8       0          0          0         
102505           563.07     23.69      0          0          0         
102510           564.1      25.76      0          0          0         
1028             549.71     38.05      0          0          0         
1030             550.01     36.85      0          0          0         
103105           574.2      13.26      0          0          0         
103110           576.66     10.6       0          0          0         
103112           566.07     21.19      0          0          0         
103114           568.36     20.8       0          0          0         
103115           577.09     12.07      0          0          0         
103120           559.46     29.2       0          0          0         
103122           573.94     14.72      0          0          0         
103125           563.82     22.94      0          0          0         
103130           565.14     23.42      0          0          0         
103140           565.2      23.36      0          0          0         
103145           566.46     25.8       0          0          0         
103155           576.65     12.01      0          0          0         
103160           577.1      16.46      0          0          0         
103170           573.91     12.85      0          0          0         
103175           575.19     10.77      0          0          0         
103180           576.84     21.22      0          0          0         
1034             550.3      35.16      0          0          0         
;GDRSS Level 3.0 Outfall Representation: junction Outfall
;(B39) (9/13/96)
10351            563.76     66         0          0          0         
103510           561.88     25.88      0          0          0         
10352            561.56     68.2       0          0          0         
1038             550.33     33.93      0          0          0         
103905           572.14     16.32      0          0          0         
103910           572.26     21.5       0          0          0         
103915           573.08     16.78      0          0          0         
103920           574.2      20.46      0          0          0         
1042             550.45     31.91      0          0          0         
10442            567.96     36.8       0          0          0         
;9/15/09 No Inflow (deadend)
1046             550.51     30.95      0          0          0         
1048             568.06     36.7       0          0          0         
1050             550.7      29.26      0          0          0         
105105           573.6      11.66      0          0          0         
105120           574.74     14.22      0          0          0         
105125           574.88     16.38      0          0          0         
105130           576.04     19.52      0          0          0         
105135           576.68     19.68      0          0          0         
1054             551.1      30.66      0          0          0         
105505           573.16     12.3       0          0          0         
105510           574.33     14.53      0          0          0         
105515           575.27     11.59      0          0          0         
105520           575.58     13.28      0          0          0         
105525           577.5      16.86      0          0          0         
105535           582.43     13.83      0          0          0         
105540           582.46     13.8       0          0          0         
105542           568.27     27.19      0          0          0         
105550           585.15     14.11      0          0          0         
105555           585.19     14.07      0          0          0         
105557           571.63     27.53      0          0          0         
1058             551.81     27.55      0          0          0         
105905           576.46     16         0          0          0         
;GDRSS Level 3.0 Outfall Representation: Swain Outfall(B33)
;(9/13/96)
10601            572.56     32.2       0          0          0         
1062             552.05     29.71      0          0          0         
1066             552.36     34.7       0          0          0         
106705           573.46     15.6       0          0          0         
106710           573.76     21         0          0          0         
106715           574.25     15.21      0          0          0         
;changed per survey of outfalls (5/07)
10672            569.83     34.93      0          0          0         
106720           575.26     18.7       0          0          0         
106725           576.09     18.57      0          0          0         
106730           576.84     18.62      0          0          0         
106735           578.71     20.55      0          0          0         
106740           581.9      16.76      0          0          0         
106745           581.93     16.73      0          0          0         
106747           572.22     26.24      0          0          0         
106750           575.68     17.98      0          0          0         
106755           578.67     18.69      0          0          0         
106760           580.03     18.33      0          0          0         
106765           580.06     18.3       0          0          0         
106767           570.19     28.17      0          0          0         
106775           579.16     17.8       0          0          0         
106780           581.34     15.92      0          0          0         
106785           581.37     15.89      0          0          0         
106787           569.49     28.07      0          0          0         
106790           581.52     16.04      0          0          0         
106795           584.38     16.08      0          0          0         
106800           584.43     16.03      0          0          0         
106802           573.96     26.5       0          0          0         
106805           580.42     17.74      0          0          0         
106810           584.71     18.95      0          0          0         
106815           584.76     18.9       0          0          0         
106817           575.45     28.21      0          0          0         
106820           584.33     14.93      0          0          0         
106825           588.39     14.87      0          0          0         
106830           588.43     14.83      0          0          0         
106832           576.45     26.81      0          0          0         
1070             552.74     38.12      0          0          0         
107105           573.82     17.44      0          0          0         
107110           576.14     19.02      0          0          0         
107115           578.53     18.03      0          0          0         
107125           580.95     20.11      0          0          0         
107135           582.65     17.31      0          0          0         
107140           584.3      14.86      0          0          0         
107145           584.33     14.83      0          0          0         
107147           574.51     24.65      0          0          0         
107150           585.36     14         0          0          0         
107155           589.63     16.63      0          0          0         
107160           589.68     16.58      0          0          0         
107162           578.45     27.81      0          0          0         
107163           577.09     27.47      0          0          0         
1074             553.02     36.84      0          0          0         
107505           572.56     20.4       0          0          0         
;GDRSS Level 3.0 Outfall Representation: 18TH Outfall(B29)
;(9/13/96)
10751            572.16     32.6       0          0          0         
107515           578.97     21.79      0          0          0         
107520           579.07     21.69      0          0          0         
107525           580.5      21.76      0          0          0         
107535           582.33     20.73      0          0          0         
107540           585.18     20.48      0          0          0         
107545           586.56     22.1       0          0          0         
107550           586.98     23.08      0          0          0         
107560           581.48     28.58      0          0          0         
107565           578.21     26.55      0          0          0         
107575           586.69     21.97      0          0          0         
107580           586.76     21.9       0          0          0         
1078             553.35     37.31      0          0          0         
1080             553.7      31.66      0          0          0         
108105           573.88     17.08      0          0          0         
;GDRSS Level 3.0 Outfall Representation: 14th Outfall(B28)
;(9/13/96),overflow elevation corrected (5/07)
10811            577.28     27.48      0          0          0         
108115           584.79     18.77      0          0          0         
10812            573.61     31.15      0          0          0         
108120           585.71     19.05      0          0          0         
108125           587.07     16.59      0          0          0         
108130           587.97     15.99      0          0          0         
108135           587.7      16.26      0          0          0         
108140           591.26     16.8       0          0          0         
108145           593.34     16.12      0          0          0         
108152           593.28     20.78      0          0          0         
1084             554.05     30.11      0          0          0         
108505           576.21     28.05      0          0          0         
108510           576.43     22.33      0          0          0         
;No Inflow (deadend)
108512           581.11     17.65      0          0          0         
108515           581.11     14.85      0          0          0         
108520           582.83     15.63      0          0          0         
108525           587.33     15.43      0          0          0         
108530           588.13     15.83      0          0          0         
108535           589.46     17         0          0          0         
1088             554.34     26.32      0          0          0         
108905           573.26     8          0          0          0         
108910           573.78     18.58      0          0          0         
108915           575.78     18.38      0          0          0         
108930           585.01     19.65      0          0          0         
108935           585.38     20.78      0          0          0         
108940           589.45     19.01      0          0          0         
108945           592.07     15.89      0          0          0         
108950           597.75     13.91      0          0          0         
108955           595.78     21.28      0          0          0         
1092             554.83     25.23      0          0          0         
1096             554.97     25.19      0          0          0         
1100             557.52     26.74      0          0          0         
11501            558.57     26.69      0          0          0         
11521            559.76     25.5       0          0          0         
11523            559.57     28.09      0          0          0         
11524            557.66     29.3       0          0          0         
;Edited: 6/01 WT tg Added Representation of Toward Treatment
;Sewer-baby Creek Facility
1155             558.92     22.94      0          0          0         
;Woodmere PS  Discharge Pipe  9/15/09
11601            569.76     19.5       0          0          0         
1165             559.96     24.3       0          0          0         
1170             563.25     23.81      0          0          0         
1180             563.75     24.61      0          0          0         
1195             568.36     29.2       0          0          0         
;Dearborn Flow
1200             569.86     31         0          0          0         
1205             571.26     31.7       0          0          0         
1212             571.66     32.7       0          0          0         
12123            571.66     32.7       0          0          0         
12124            571.66     32.7       0          0          0         
1215             572.46     35.3       0          0          0         
1220             573.66     37.4       0          0          0         
12201            584.06     26.4       0          0          0         
1225             579.86     36.2       0          0          0         
1230             583.76     41         0          0          0         
12301            599.06     26.5       0          0          0         
12304            599.86     25.7       0          0          0         
1300             573.96     25.2       0          0          0         
1305             578.96     25         0          0          0         
1310             583.16     22.7       0          0          0         
1325             589.46     23.8       0          0          0         
1330             590.56     25.6       0          0          0         
1340             595.36     27.4       0          0          0         
1345             598.56     30         0          0          0         
1400             560.66     20.3       0          0          0         
1415             564.36     31.7       0          0          0         
1420             564.96     28.9       0          0          0         
1425             565.06     26.9       0          0          0         
1430             565.36     27.9       0          0          0         
14301            565.23     29.53      0          0          0         
1435             565.56     29.2       0          0          0         
1440             565.76     29.1       0          0          0         
1445             566.16     28.9       0          0          0         
1503             581.56     29.1       0          0          0         
15031            581.66     29         0          0          0         
15032            581.66     29         0          0          0         
1504             581.66     29         0          0          0         
1510             586.71     31.45      0          0          0         
1515             587.26     33.2       0          0          0         
1516             587.36     33.1       0          0          0         
15163            587.31     33.15      0          0          0         
15164            587.31     33.15      0          0          0         
1520             588.76     36         0          0          0         
1525             589.96     39.9       0          0          0         
1530             590.56     40.9       0          0          0         
1540             591.96     42.1       0          0          0         
1545             594.36     42.9       0          0          0         
1546             598.46     39.3       0          0          0         
1555             598.96     36.2       0          0          0         
1560             600.06     36.3       0          0          0         
160100           574.07     29.49      0          0          0         
160110           575.06     21.4       0          0          0         
160122           580.05     28.41      0          0          0         
160130           583.18     25.12      0          0          0         
160140           585.72     27.28      0          0          0         
;ASI rev 3-09
160146           589.06     33.76      0          0          0         
;ASI rev 3-09
160147           590.41     33.69      0          0          0         
160150           591.77     33.59      0          0          0         
;ASI rev 3-09
160171           582.51     24.95      0          0          0         
;ASI rev 3-09
160172           588.45     22.01      0          0          0         
;ASI rev 3-09
160173           594.39     18.97      0          0          0         
1604             556.08     25.38      0          0          0         
160510           572.14     17.62      0          0          0         
160550           580.94     23.82      0          0          0         
;ASI rev 3-09
160556           590.31     19.45      0          0          0         
;ASI rev 3-09
160557           597.46     15.3       0          0          0         
160560           604.62     11.14      0          0          0         
1608             556.56     32         0          0          0         
16090            567.86     34.1       0          0          0         
1612             556.64     32.62      0          0          0         
161310           578        19.21      0          0          0         
161320           579.66     14.1       0          0          0         
161340           583.72     32.04      0          0          0         
161350           585.06     32.2       0          0          0         
;ASI rev. 3-09
161358           590.55     37.84      0          0          0         
;ASI rev. 3-09
161359           592.26     38.46      0          0          0         
;ASI rev 3-09
161367           595.66     37.6       0          0          0         
;ASI rev 3-09
161368           597.36     36.1       0          0          0         
;ASI rev 3-09
161369           598.96     34.7       0          0          0         
;ASI rev 3-09
161371           604.66     28.1       0          0          0         
;ASI rev 3-09
161382           605.48     26.86      0          0          0         
;ASI rev 3-09
161384           607.41     26.35      0          0          0         
;ASI rev 3-09
161415           585.56     17.1       0          0          0         
;ASI rev 3-09
161425           585.66     17         0          0          0         
;ASI rev 3-09
161450           595.21     20.55      0          0          0         
1616             556.75     34.31      0          0          0         
;Ground Raised Above Survey
16170            562.51     20.55      0          0          0         
161700           558.45     41.31      0          0          0         
161715           582.06     27.7       0          0          0         
16172            569.56     35.2       0          0          0         
161720           575.32     42.34      0          0          0         
161721           581.9      33.56      0          0          0         
161725           583.48     28.28      0          0          0         
16173            569.56     35.2       0          0          0         
161730           577.38     41.58      0          0          0         
161735           584.96     34.3       0          0          0         
16174            569.56     35.2       0          0          0         
161740           587.59     32.17      0          0          0         
161745           591.4      29.06      0          0          0         
161750           595.35     26.21      0          0          0         
161755           598.53     23.53      0          0          0         
161760           601.08     21.38      0          0          0         
;rev.ASI 3-09
161768           579.09     42.13      0          0          0         
;rev.ASI 3-09
161769           580.79     42.7       0          0          0         
161770           582.5      43.26      0          0          0         
;rev.ASI 3-09
161778           584.55     43.34      0          0          0         
;rev.ASI 3-09
161779           586.6      43.46      0          0          0         
161780           588.66     43.6       0          0          0         
;rev.ASI 3-09
161788           593.84     37.92      0          0          0         
161789           595.18     36.58      0          0          0         
161790           596.53     32.63      0          0          0         
161795           591.44     40.12      0          0          0         
1620             556.88     34.58      0          0          0         
162100           575.77     23.99      0          0          0         
162130           584.51     19.25      0          0          0         
162140           597.49     15.37      0          0          0         
162145           587.8      25.06      0          0          0         
162150           603.76     13.6       0          0          0         
162160           606.41     13.35      0          0          0         
162170           579        19.06      0          0          0         
;rev ASI 3-09
162185           579.36     35.4       0          0          0         
162190           589.38     25.58      0          0          0         
162200           602.99     16.27      0          0          0         
162220           579.06     18.65      0          0          0         
162225           560.65     41.53      0          0          0         
162240           578.12     19.94      0          0          0         
162250           580.66     23.1       0          0          0         
162260           582.16     18.3       0          0          0         
162265           564.31     38.15      0          0          0         
1624             556.98     25.78      0          0          0         
1626             558.29     24.47      0          0          0         
;GDRSS Level 3.0 Outfall Representation: Hastings
;Outfall(B18) (9/13/96)
16271            575.26     29.5       0          0          0         
162710           584.06     16.65      0          0          0         
16272            573.26     31.5       0          0          0         
162720           585.26     15         0          0          0         
162730           589.37     12.89      0          0          0         
162740           591.7      28.16      0          0          0         
162750           600.53     18.73      0          0          0         
162760           604.13     16.33      0          0          0         
1630             558.51     25.25      0          0          0         
16310            569.09     14.37      0          0          0         
163110           582.85     15.61      0          0          0         
;ASI rev 3-09
163111           585.88     19.72      0          0          0         
;ASI rev 3-09
163112           588.91     23.83      0          0          0         
163120           591.94     27.95      0          0          0         
163130           609.72     12.34      0          0          0         
163150           584.86     16.59      0          0          0         
163160           588.22     22.37      0          0          0         
163180           605.16     12.8       0          0          0         
163190           608.95     12.61      0          0          0         
1634             558.84     22.92      0          0          0         
163500           578.16     18.35      0          0          0         
163530           605.08     13.98      0          0          0         
163540           611.2      11.26      0          0          0         
1638             558.99     22.77      0          0          0         
;ASI rev 3-09
163908           574.82     18.84      0          0          0         
;ASI rev 3-09
163909           577.85     27.41      0          0          0         
163920           583.89     35.37      0          0          0         
;(2) Orleans Relief Outfall
16393            574.76     30         0          0          0         
163930           584.23     33.13      0          0          0         
16394            573.76     31         0          0          0         
163940           585.06     35         0          0          0         
16395            571.34     33.42      0          0          0         
163950           605.63     13.33      0          0          0         
163960           592.42     28.04      0          0          0         
163970           605.46     13.9       0          0          0         
1642             559.3      24.46      0          0          0         
;Node for the St. Aubin Facility
16441            564.16     40.6       0          0          0         
16444            564.56     38.7       0          0          0         
16447            554.76     48         0          0          0         
164590           574.32     19.71      0          0          0         
;ASI -rev 3-09
164593           576.58     26.05      0          0          0         
;ASI -rev 3-09
164594           578.84     32.38      0          0          0         
1646             560.5      23.76      0          0          0         
;ASI -rev 3-09
164601           582.58     39.48      0          0          0         
;ASI -rev 3-09
164602           584.07     40.23      0          0          0         
;ASI -rev 3-09
164603           585.56     40.98      0          0          0         
164620           590.28     36.98      0          0          0         
164680           602.23     24.73      0          0          0         
;Edited: 10/01 WT Updated to increase stability GDRSS Level
;3.0 Outfall Representation: DuBois Outfall (B12) (9/16/96)
16471            575.76     29         0          0          0         
164710           602.8      28.18      0          0          0         
16472            574.8      29.96      0          0          0         
16475            572.76     32         0          0          0         
1650             560.74     24.02      0          0          0         
;GDRSS Level 3.0 Outfall Representation: Chene Outfall (B11)
;(9/16/96)
16511            574.96     29.8       0          0          0         
16512            574.66     30.1       0          0          0         
;(date: 06-21-2001)  Invert change to account for new
;diversion node at outfall
16513            574.33     29.93      0          0          0         
1654             561.1      23.66      0          0          0         
165500           579.27     46.69      0          0          0         
;ASI -rev 3-09
165501           574.91     47.05      0          0          0         
;ASI -rev 3-09
165502           576.36     46.9       0          0          0         
;ASI -rev 3-09
165503           577.82     46.84      0          0          0         
;Trunk Sewer GDRSS Level 3.0 Outfall Representation: Joseph
;Campau Outfall (B10) (9/16/96)
16551            571.36     33.4       0          0          0         
165520           583.95     44.81      0          0          0         
;ASI -rev 3-09
165531           596.92     33.64      0          0          0         
;ASI -rev 3-09
165532           598.85     30.91      0          0          0         
;ASI -rev 3-09
165533           601.18     25.58      0          0          0         
;ASI -rev 3-09
165541           603.66     25.2       0          0          0         
165550           590.64     36.92      0          0          0         
165580           588.28     40.28      0          0          0         
;ASI -rev 3-09
165601           572.66     29.7       0          0          0         
;ASI -rev 3-09
165602           575.16     33         0          0          0         
;ASI -rev 3-09
165603           577.66     36.3       0          0          0         
;ASI -rev 3-09
165611           582.05     39.01      0          0          0         
;ASI -rev 3-09
165612           583.92     38.44      0          0          0         
;ASI -rev 3-09
165613           585.79     37.87      0          0          0         
165615           580.06     37.7       0          0          0         
165620           587.66     37.3       0          0          0         