[SUBCATCHMENTS]
;;Name           Rain Gage        Outlet           Area     %Imperv  Width    %Slope   CurbLen  SnowPack        
;;-------------- ---------------- ---------------- -------- -------- -------- -------- -------- ----------------
S1000            PG04             RC11000          213.7    72.8     93088    1        0                        
S1003            PG04             RC11003          61       62.7     26572    1        0                        
S100715          PG04             RC600715         109.3    47.1     47611    1        0                        
S100730          PG04             RC600730         84.7     45.7     36895    1        0                        
S1011            PG04             RC11011          38.7     70.2     16836    1        0                        
S101910          PG11             RC601910         54.8     43.7     23858    1        0                        
S101919          PG11             RC601919         291      60.1     126760   1        0                        
S101925          PG11             RC601925         235      50.4     102366   1        0                        
S101945          PG11             RC601945         241      54.5     104980   1        0                        
S102505          PG11             RC602505         114      44.2     49658    1        0                        
S1031            PG11             RC11031          123.3    51       53709    1        0                        
S103110          PG11             RC603110         75       52.6     32670    1        0                        
S103115          PG11             RC603115         249      50.3     108464   1        0                        
S103150          PG11             RC603150         96       67.7     41818    1        0                        
S103155          PG11             RC603155         88       40.4     38333    1        0                        
S103160          PG11             RC603160         67       54.2     29185    1        0                        
S103175          PG16             RC603175         66       60.6     28750    1        0                        
S103180          PG16             RC603180         41       43       17860    1        0                        
S103185          PG16             RC603185         132      51.1     57499    1        0                        
S1035            PG16             RC11035          703.7    51.1     306532   1        0                        
;CDM Rev 3/2012 Loading Node
S1039            PG15             RC11039          410.9    40.7     178988   1        0                        
S1051            PG16             RC11051          41.5     43.8     18077    1        0                        
S105115          PG16             RC605115         60       76.2     26136    1        0                        
;Area Changed
S105130          PG16             RC605130         47       42.5     20473    1        0                        
S105140          PG16             RC605140         111      64.2     48352    1        0                        
S105515          PG16             RC605515         74       74.9     32234    1        0                        
;Area Changed
S105530          PG16             RC605530         140      43.7     60984    1        0                        
S105545          PG16             RC605545         143      61.6     62291    1        0                        
S105905          PG11             RC605905         28       75.3     12197    1        0                        
S1063            PG16             RC11063          25       65.6     10890    1        0                        
S106705          PG11             RC606705         85.1     59.9     37057    1        0                        
S106715          PG16             RC606715         100      48       43560    1        0                        
S106730          PG16             RC606730         49       68.7     21344    1        0                        
S106745          PG16             RC606745         54       45.3     23522    1        0                        
S106750          PG16             RC606750         32       59       13939    1        0                        
S106765          PG16             RC606765         33       39.3     14375    1        0                        
S106770          PG16             RC606770         78       65.2     33977    1        0                        
S106785          PG16             RC606785         63       51.5     27443    1        0                        
S107110          PG26             RC607110         79       60.9     34412    1        0                        
S107130          PG16             RC607130         164      65.3     71438    1        0                        
S1075            PG26             RC11075          334.6    65.9     145752   1        0                        
S107510          PG26             RC607510         204      74.7     88862    1        0                        
S107530          PG16             RC607530         183      59.5     79715    1        0                        
S1081            PG02             RC11081          264.2    61.5     115086   1        0                        
S108110          PG02             RC608110         232      65.9     101059   1        0                        
S108135          PG02             RC608135         91       39.5     39640    1        0                        
S108520          PG26             RC608520         110      73       47916    1        0                        
S108540          PG26             RC608540         164      57.7     71438    1        0                        
S108920          PG26             RC608920         176      72.1     76666    1        0                        
S108925          PG26             RC608925         66       61.4     28750    1        0                        
S108945          PG26             RC608945         70       48.6     30492    1        0                        
;9-23-08
S1093            PG26             RC11093          41.3     39.7     17988    1        0                        
S1125            PG04             RC1126           50       45       21780    1        0                        
S1130            PG04             RC1131           57       45       24829    1        0                        
S1155            PG04             RC1156           312      45       135907   1        0                        
S1170            PG04             RC1171           85       45       37026    1        0                        
S1185            PG15             RC11185          1186     53       516622   1        0                        
S1187            PG15             RC11187          665      41.7     289674   1        0                        
S1188            PG15             RC11188          729      50       317552   1        0                        
S1215            PG15             RC11215          110      37       47916    1        0                        
S1220            PG15             RC11220          62       37       27007    1        0                        
S1225            PG15             RC11225          90       37       39204    1        0                        
S1230            PG24             RC11230          365      37       158994   1        0                        
S1310            PG15             RC11310          420      41       182952   1        0                        
S1320            PG15             RC11320          318      41       138521   1        0                        
S1335            PG15             RC11335          240      41       104544   1        0                        
S1345            PG24             RC11345          1305     41       568458   1        0                        
S1535            PG24             RC11535          1034     35       450410   1        0                        
S1545            PG24             RC11545          1155     40       503118   1        0                        
S1550            PG18             RC11550          291      38       126760   1        0                        
S1570            PG18             RC11570          1077     42       469141   1        0                        
S1571            PG03             RC11571          1797     45       782773   1        0                        
S1601            PG02             RC31601          42.5     81       18522    1        0                        
;CDM Rev 3/2012 Loading Node
S160120          PG26             RC3160120        11.5     90       4996     1        0                        
S160121          PG26             RC3160121        76.7     63.8     33402    1        0                        
S160123          PG02             RC3160123        46.8     73.1     20390    1        0                        
S160145          PG02             RC3160145        176.8    69.2     77001    1        0                        
S160160          PG02             RC3160160        254.2    65.6     110738   1        0                        
S160161          PG02             RC3160161        127.4    86.4     55491    1        0                        
;CDM Rev 3/2012 Loading Node
S160170          PG02             RC3160170        103.2    88.1     44950    1        0                        
S160175          PG02             RC3160175        64.1     90       27939    1        0                        
S160180          PG02             RC3160180        32       44.3     13935    1        0                        
;1st	Hamilton	8-Sep
S1605            PG26             RC31605          20.3     89.7     8825     1        0                        
S160500          PG26             RC3160500        26.1     90       11382    1        0                        
S160520          PG26             RC3160520        24       90       10441    1        0                        
S160530          PG26             RC3160530        12.6     90       5506     1        0                        
S160540          PG26             RC3160540        14.5     90       6329     1        0                        
S160555          PG26             RC3160555        49.3     89.3     21471    1        0                        
S160570          PG26             RC3160570        40.6     90       17672    1        0                        
;Griswold	8-Sep
S1609            PG26             RC31609          15.6     56.3     6787     1        0                        
S160900          PG26             RC3160900        25       90       10877    1        0                        
S160910          PG26             RC3160910        27.3     90       11874    1        0                        
;Woodward	8-Sep
S1613            PG26             RC31613          13.8     72.3     6011     1        0                        
S161300          PG18             RC3161300        66.9     81.7     29150    1        0                        
S161330          PG18             RC3161330        16.5     90       7205     1        0                        
S161360          PG18             RC3161360        108.4    88.2     47206    1        0                        
S161370          PG18             RC3161370        79.3     77.2     34547    1        0                        
S161380          PG18             RC3161380        208.2    62.3     90683    1        0                        
S161385          PG18             RC3161385        28.2     50.2     12275    1        0                        
S161420          PG26             RC3161420        24.7     89       10777    1        0                        
S161430          PG26             RC3161430        39.9     90       17372    1        0                        
S161460          PG26             RC3161460        76.5     81.5     33302    1        0                        
S161710          PG18             RC3161710        12       66       5227     1        0                        
S161716          PG18             RC3161716        9.4      90       4073     1        0                        
S161722          PG18             RC3161722        92.1     67.8     40101    1        0                        
S161726          PG18             RC3161726        65.4     89.6     28471    1        0                        
S161781          PG02             RC3161781        210.5    70.1     91706    1        0                        
S161785          PG18             RC3161785        295.4    72       128686   1        0                        
S161791          PG18             RC3161791        478.8    56.7     208544   1        0                        
S161796          PG18             RC3161796        606.8    50.3     264331   1        0                        
;Randolph	8-Sep
S1621            PG26             RC31621          19.8     88.9     8632     1        0                        
S16210           PG26             RC316210         37.2     89.6     16226    1        0                        
S162110          PG20             RC3162110        23.5     90       10228    1        0                        
S162120          PG20             RC3162120        32.8     90       14270    1        0                        
S162135          PG20             RC3162135        9.7      90       4221     1        0                        
S162144          PG20             RC3162144        83.7     74.8     36460    1        0                        
S162155          PG20             RC3162155        24       31.1     10467    1        0                        
S162165          PG20             RC3162165        33       51.2     14362    1        0                        
S162180          PG26             RC3162180        14.8     90       6451     1        0                        
S162195          PG26             RC3162195        20.6     68.1     8952     1        0                        
S162205          PG26             RC3162205        51.1     76.4     22250    1        0                        
S162210          PG26             RC3162210        26.2     90       11417    1        0                        
S162230          PG26             RC3162230        19       90       8255     1        0                        
S162265          PG26             RC3162265        8.1      90       3528     1        0                        
;Hastings	8-Sep
S1627            PG26             RC31627          30.3     88       13187    1        0                        
S162700          PG20             RC3162700        22.2     90       9653     1        0                        
S162770          PG20             RC3162770        42.4     73       18483    1        0                        
;revised	Rivard	8-Sep
S1631            PG26             RC31631          29.6     79.1     12895    1        0                        
S163100          PG20             RC3163100        70.5     67.8     30710    1        0                        
S163126          PG20             RC3163126        20.7     84.6     8999     1        0                        
S163140          PG20             RC3163140        11.2     16.8     4887     1        0                        
S163186          PG20             RC3163186        21.4     47.9     9304     1        0                        
S163200          PG20             RC3163200        43.6     48.3     18975    1        0                        
;revised	Riopelle	8-Sep
S1635            PG26             RC31635          61.8     61       26919    1        0                        
S163510          PG20             RC3163510        18.7     25.7     8128     1        0                        
S163520          PG20             RC3163520        18.2     50.6     7906     1        0                        
S163536          PG20             RC3163536        35.2     86.4     15337    1        0                        
S163550          PG20             RC3163550        46.3     77.9     20173    1        0                        
;revised	Orleans	8-Sep	ASI	9-Mar
S1639            PG20             RC31639          67.7     54.7     29472    1        0                        
S163910          PG20             RC3163910        22.4     60.4     9775     1        0                        
;revised	Dubois	8-Sep
S1643            PG20             RC31643          89       66.2     38768    1        0                        
S164600          PG20             RC3164600        239.8    52.8     104435   1        0                        
S164610          PG20             RC3164610        98.4     53.3     42855    1        0                        
S164630          PG20             RC3164630        151.9    39.4     66159    1        0                        
S164640          PG20             RC3164640        119.1    56.1     51889    1        0                        
S164660          PG20             RC3164660        103      67.6     44862    1        0                        
S164670          PG20             RC3164670        91       46.6     39635    1        0                        
S164690          PG18             RC3164690        66.2     78.1     28841    1        0                        
;CDM Rev 3/2012 Loading Node
S1647            PG20             RC31647          62.3     30.8     27125    1        0                        
S164700          PG18             RC3164700        80.1     90       34909    1        0                        
S1651            PG20             RC31651          125.3    43.4     54583    1        0                        
;revised	Jos	Campau	8-Sep
S1655            PG20             RC31655          119.8    40.1     52180    1        0                        
S16550           PG20             RC316550         114      70.4     49642    1        0                        
S165510          PG20             RC3165510        150.2    38.7     65425    1        0                        
S165530          PG19             RC3165530        504.4    72.4     219720   1        0                        
S165540          PG19             RC3165540        86.7     79.3     37751    1        0                        
S165555          PG20             RC3165555        62.3     40.3     27123    1        0                        
S165560          PG20             RC3165560        55.6     42.4     24233    1        0                        
S165570          PG20             RC3165570        23.3     52.3     10137    1        0                        
S165590          PG20             RC3165590        112.4    65.3     48978    1        0                        
S165600          PG20             RC3165600        247.5    19.8     107804   1        0                        
S165610          PG20             RC3165610        263.5    42.5     114772   1        0                        
S165630          PG20             RC3165630        72.4     38.8     31558    1        0                        
S165640          PG20             RC3165640        36.1     45.4     15706    1        0                        
;revised	Adair	8-Sep
S1663            PG20             RC31663          14.4     34.1     6278     1        0                        
S166300          PG20             RC3166300        43.1     52.9     18755    1        0                        
S166310          PG20             RC3166310        71.4     44.2     31114    1        0                        
S166330          PG20             RC3166330        33.9     43.4     14765    1        0                        
S166350          PG20             RC3166350        63.6     51.3     27714    1        0                        
S1671            PG20             RC11671          84       65.2     36590    1        0                        
S167104          PG31             RC367104         73       45.3     31799    1        0                        
S167114          PG31             RC367114         49       40.7     21344    1        0                        
S167122          PG31             RC367122         87       39.7     37897    1        0                        
S167130          PG31             RC367130         33       48       14375    1        0                        
S167204          PG31             RC367204         81       42       35284    1        0                        
S167210          PG31             RC367210         65       36.5     28314    1        0                        
S167218          PG31             RC367218         77       38.5     33541    1        0                        
S167228          PG31             RC367228         29       40.9     12632    1        0                        
S167304          PG31             RC367304         61       41.4     26572    1        0                        
S167312          PG31             RC367312         41       36.1     17860    1        0                        
S167320          PG31             RC367320         97       40.6     42253    1        0                        
S167328          PG31             RC367328         54       42.5     23522    1        0                        
S167404          PG31             RC367404         68       49.8     29621    1        0                        
S167412          PG31             RC367412         63       56.5     27443    1        0                        
S167420          PG31             RC367420         145      63.6     63162    1        0                        
S168104          PG31             RC368104         144      39.8     62726    1        0                        
S168112          PG31             RC368112         153      39.1     66647    1        0                        
S168122          PG31             RC368122         106      39.4     46174    1        0                        
S168202          PG31             RC368202         106      39.2     46174    1        0                        
S168208          PG31             RC368208         100      39.3     43560    1        0                        
S168216          PG31             RC368216         106      33.8     46174    1        0                        
S168224          PG31             RC368224         43       39.6     18731    1        0                        
S168304          PG31             RC368304         121      40.7     52708    1        0                        
S168310          PG31             RC368310         110      39.9     47916    1        0                        
S168318          PG31             RC368318         169      40.8     73616    1        0                        
;Belle Isle CSO
S168326          PG31             RC368326         57       45.6     24829    1        0                        
S16868           PG31             RC36868          41.5     74.6     18077    1        0                        
S168702          PG31             RC368702         111      36.1     48352    1        0                        
S168712          PG31             RC368712         191      38.6     83200    1        0                        
;McClellen	Drainage	Areas
S168722          PG31             RC368722         82       44.2     35719    1        0                        
S169002          PG22             RC369002         106      38       46174    1        0                        
S169010          PG22             RC369010         244      40.4     106286   1        0                        
;Cadilliac	Drainage	Areas
S169020          PG22             RC369020         100      41       43560    1        0                        
S1731            PG22             RC11731          849      54.5     369824   1        0                        
;Carbon	Areas	B46
S177851          PG04             RC377851         7.82     12       3406     1        0                        
S177852          PG04             RC377852         25.2     38       10977    1        0                        
S177853          PG04             RC377853         8.3      12       3615     1        0                        
S177854          PG04             RC377854         26.07    45.5     11356    1        0                        
S177855          PG04             RC377855         9.99     54.8     4352     1        0                        
S177856          PG04             RC377856         24.53    38       10685    1        0                        
S177860          PG04             RC377860         13.31    38       5798     1        0                        
S177861          PG04             RC377861         13.78    38       6003     1        0                        
S177862          PG04             RC377862         12.12    38       5279     1        0                        
;Woodmere Areas
S177870          PG04             RC377870         70.37    31.7     30653    1        0                        
S177872          PG04             RC377872         56.49    40.7     24607    1        0                        
S177874          PG04             RC377874         253.08   33.3     110242   1        0                        
S177876          PG04             RC377876         145.16   17.3     63232    1        0                        
S177878          PG04             RC377878         98.84    36.9     43055    1        0                        
S1781            PG15             RC11781          382      70       166399   1        0                        
S1782            PG15             RC11782          2640     43       1149984  1        0                        
;Reduce 1785 (tributary to B47) by 8.33 acres
S1785            PG04             RC11785          56.7     49.1     24685    1        0                        
S1795            PG04             RC11795          1562     49.4     680407   1        0                        
S1952            PG24             RC1951           1428     43       622037   1        0                        
S19520           PG15             RC19523          410      43       178596   1        0                        
S1953            PG15             RC11953          263      36.9     114563   1        0                        
S200515          PG11             RC700515         55       72.8     23958    1        0                        
S200525          PG11             RC700525         75       41.2     32670    1        0                        
;9-23-08
S2030            PG16             RC12030          548.8    55.7     239057   1        0                        
;9-23-08
S2040            PG16             RC12040          281.5    57.3     122621   1        0                        
;9-23-08
S2056            PG18             RC12056          746.4    42.7     325132   1        0                        
;9-23-08
S2060            PG18             RC12060          118.8    40       51749    1        0                        
S2115            PG26             RC32115          27.3     90       11879    1        0                        
S2140            PG26             RC32140          82.6     81       35998    1        0                        
S214500          PG02             RC3214500        173.2    75       75446    1        0                        
S2160            PG18             RC32160          479.6    41.1     208909   1        0                        
S2200            PG03             RC12200          1593     37       693911   1        0                        
S2201            PG03             RC12201          47       38       20473    1        0                        
S2315            PG08             RC12315          1074     50       467834   1        0                        
S2345            PG08             RC12345          766      41       333670   1        0                        
S2350            PG08             RC12350          1089     35       474368   1        0                        
S2355            PG03             RC12355          1651     35       719176   1        0                        
S2389            PG17             RC12389          800      40       348480   1        0                        
S2397            PG17             RC12397          456      40       198634   1        0                        
S2505            PG19             RC12505          965      55       420354   1        0                        
;CDM Rev 3/2012 Loading Node
S2520            PG03             RC12520          716      44       311890   1        0                        
;CDM Rev 3/2012 Loading Node
S2521            PG03             RC12521          62       39       27007    1        0                        
S2560            PG19             RC12560          690      62       300564   1        0                        
;Rev.ASI 9-Mar
S2575            PG19             RC12575          989      52       430808   1        0                        
S2576            PG19             RC12576          95       60       41382    1        0                        
S2605            PG19             RC12605          169      44       73616    1        0                        
;Rev.ASI 9-Mar
S2730            PG20             RC32730          158.8    43.2     69186    1        0                        
;revised 8-Sep
S2735            PG19             RC12735          35       49.8     15246    1        0                        
S2736            PG19             RC12736          22       76.6     9583     1        0                        
S2740            PG19             RC12740          821      44.1     357628   1        0                        
S2765            PG08             RC12765          432      46       188179   1        0                        
S2770            PG08             RC12770          97       40       42253    1        0                        
S2805            PG20             RC12805          20       78.6     8712     1        0                        